20
Coordinates from ORCA-job opt
  C   -11.81356196082805     -1.05594478312782      0.03113716154578
  C   -12.67598016682235     -0.04122199370377     -0.03326298053955
  C   -13.95690460673521     -0.03697557357026     -0.74135288878270
  C   -14.15902155553367     -0.75239729788388     -2.06954993729506
  C   -14.85337497801137     -1.26522437578760     -0.81579059768894
  C   -14.49774973188211     -2.53801317296309     -0.18643720976506
  C   -13.27287922676398     -3.05647584916591     -0.09315644481965
  C   -12.03719530201824     -2.38744772183102     -0.63878544600486
  C   -12.14066339721205     -2.21913919958494     -2.13298953172871
  C   -13.08545222704606     -1.49423823698688     -2.73275777879660
  H   -10.89561861962542     -0.92477846147166      0.59452257064794
  H   -12.42426350768775      0.88024472878301      0.48280114271403
  H   -14.50428395863867      0.89414277875735     -0.66328011345280
  H   -14.82076487644850     -0.22827024838292     -2.74784763195302
  H   -15.91038783384915     -1.03250888739398     -0.78017469685036
  H   -15.32617586424040     -3.09691542186624      0.23802992127384
  H   -13.14881190784663     -4.01412421267203      0.40164358356565
  H   -11.17977479410299     -3.02649678337108     -0.42477419657659
  H   -11.40020802466883     -2.72075469865876     -2.74735218801687
  H   -13.07627428993845     -1.43416372011854     -3.81677716687646
