60
Coordinates from ORCA-job reac_opt
  C   3.12047821952187    -38.28351370772307     16.30533957179979
  C   3.54386245712640    -38.33389444374782     17.77024726509010
  O   3.20184310078158    -37.07058137052355     18.40300972157419
  C   2.76800627178306    -39.42779025296794     18.51432874633993
  C   5.10654746571841    -38.41574183220369     18.00855130652526
  C   5.64809473345816    -39.82576311341851     18.22435874365880
  C   5.91408541157230    -37.69364114607432     16.92254654543522
  O   5.27170184111947    -37.65520629303872     19.23514079939308
  B   4.19113938943711    -36.79584894818554     19.33071574497210
  C   4.08109720830409    -35.64343178545138     20.36190230654981
  C   5.12973655685271    -35.40518815391984     21.20510299377794
  C   5.21867599698828    -34.38752721265210     22.25806302986765
  H   6.17074776354674    -34.38696924856247     22.81033973338862
  C   4.00375746353738    -33.97516582227945     23.11462141764568
  H   4.26852398117762    -33.75492057230493     24.16010845816258
  C   2.66823676420928    -34.60099206197912     22.96390297392311
  B   1.84973143700766    -34.86288209573651     24.25934362542229
  O   2.28630107520427    -34.47791719222886     25.51428013252320
  C   1.39391681999482    -35.08963116644475     26.48640644447960
  C   1.21447494244950    -34.13414587952760     27.66201494178996
  C   2.06722728428706    -36.38736192782442     26.95012223938186
  C   0.08845050059159    -35.34462622685879     25.62884817907099
  C   -0.84858151879869    -34.13124994823426     25.59367621838063
  C   -0.68711114337671    -36.60477119123212     26.00091031184656
  O   0.62589628438380    -35.50421970750572     24.28785611796452
  C   2.12704996912507    -34.96950585336874     21.76620444513613
  C   2.79925890069965    -34.81119885785319     20.41903921291390
  H   2.11439866290518    -35.19627038654868     19.64166157059437
  C   3.08351466244306    -33.34994213159497     20.12179559453586
  C   3.88001257975275    -32.56611302253602     20.88533603960891
  C   4.58941102707427    -32.98288995077073     22.10918402070995
  H   5.19585655301775    -32.18960747759230     22.57252075918051
  H   2.01659673060826    -38.22228897060759     16.23629509997075
  H   3.44797451936270    -39.19746272578801     15.77018587892880
  H   3.54287906724503    -37.40108767893757     15.79100202349345
  H   1.68969374428662    -39.17642750427536     18.49469629735818
  H   3.08411884141940    -39.49055159571498     19.57404329412584
  H   2.90411962160616    -40.42185782940121     18.04528385054478
  H   5.45216038824706    -40.46207209141561     17.33801115153287
  H   5.19460023610117    -40.30402431053672     19.11174088386838
  H   6.74367768356560    -39.78502245582624     18.38269703680330
  H   5.91469084732521    -38.25285569382097     15.96644305068899
  H   6.96123076759670    -37.58970123839246     17.26751806163271
  H   5.51392947415829    -36.67749197573186     16.73791651128919
  H   6.01851498668774    -36.04992906503528     21.09369885056987
  H   2.17800841203961    -34.01142964915821     28.19469738004197
  H   0.47281108308005    -34.53236473561986     28.38340435157988
  H   0.88200786324936    -33.13400625006183     27.32886534353218
  H   3.07669085768560    -36.14712901569450     27.33682832597609
  H   2.18380223183318    -37.09779097116126     26.10848660363120
  H   1.49314909206435    -36.88511240416342     27.75597894194388
  H   -1.36956643870943    -33.98382588432975     26.55994232881380
  H   -1.61123979582142    -34.29172630644354     24.80692592501332
  H   -0.29423522647713    -33.20484168736570     25.34584885128333
  H   -1.03814558104627    -36.55620020583829     27.05135660820858
  H   -0.07073318485846    -37.51342032688876     25.87434400676987
  H   -1.57516135997136    -36.70229472335156     25.34614296987166
  H   1.12368761324453    -35.42866431387078     21.78147427847510
  H   2.61236424574659    -32.91223650689295     19.22644737752037
  H   4.02977061783520    -31.51663490278409     20.58207550488752

