60
Coordinates from ORCA-job get_bvl_bvl_rxn1_TS_NEB-CI_converged
  C   0.56170836839630     -1.66479725521513     -5.93673564724793
  C   0.82806229761690     -2.08137142093628     -4.49115556906374
  O   0.37388562686741     -1.01276375127899     -3.61721874493424
  C   0.00457349788618     -3.32562985334906     -4.13884627802231
  C   2.36619742776284     -2.21894945538336     -4.10889204946847
  C   2.88586784951618     -3.65421911190625     -4.04777011557851
  C   3.28479011790617     -1.36250675631789     -4.98875472672762
  O   2.41568740845567     -1.66604878236936     -2.76672668895502
  B   1.28056454017606     -0.90189263778176     -2.57825496503047
  C   1.02310736513515     -0.03935382089694     -1.31638559231527
  C   2.07520855303656      0.13017296676073     -0.37803468149214
  C   2.11465923634976      0.95513834589855      0.73681239615360
  H   3.07907745718726      1.05894623468170      1.26096573878455
  C   0.99004781535942      1.83832033639188      1.22610940657469
  H   1.24507375342961      2.24158419158401      2.22093147776508
  C   -0.39543560234530      1.23186828225874      1.28269460554119
  B   -1.15724294601871      1.19352535430414      2.63848860702510
  O   -0.66139088596858      1.75942018448112      3.79658794358984
  C   -1.52647966887115      1.35864120293800      4.89440658248428
  C   -1.68450780168474      2.54881235538580      5.83777945670323
  C   -0.82942965150557      0.20010489881609      5.61747519167498
  C   -2.85901755212834      0.91649939016522      4.14817395014141
  C   -3.87600763671436      2.05468359589000      3.99997536563380
  C   -3.54047353548018     -0.31775712747616      4.73690519919511
  O   -2.38484520259431      0.58520265029856      2.81624830479476
  C   -0.97436071719116      0.67268939412169      0.19119510665221
  C   -0.36326253493845      0.57903062218429     -1.16972291393176
  H   -1.05504643397491      0.08843652168481     -1.87496483967955
  C   0.23502792001663      1.79544129860075     -1.81356918280505
  C   0.93640556751875      2.82715178082195     -1.16788604684338
  C   1.30723383623849      2.86987960306010      0.17439795005248
  H   1.99042960875609      3.67708232419545      0.48172528370006
  H   -0.53028951229576     -1.58687064387435     -6.10737372919494
  H   0.96799631632567     -2.40927942990322     -6.65023533056042
  H   1.00995539650547     -0.67984702407777     -6.16192731542716
  H   -1.07130168232580     -3.09008133570167     -4.25607016850489
  H   0.17049396459095     -3.63550186206752     -3.08887483657558
  H   0.24769215807745     -4.17981605574596     -4.80053014042423
  H   2.78935341480001     -4.15903657865276     -5.02971702773853
  H   2.34341820649500     -4.24683000116794     -3.28853074901134
  H   3.95762044283600     -3.64843732952490     -3.76702145792839
  H   3.35411158696764     -1.76336235093306     -6.01911364186534
  H   4.30185875319636     -1.35620233658070     -4.55040623204536
  H   2.93146168750854     -0.31464814798144     -5.04335990568077
  H   3.01766425670982     -0.37708954982575     -0.64426773228940
  H   -0.70728877609376      2.78876927407275      6.30157158438850
  H   -2.40437919543947      2.32259698931316      6.64970716458471
  H   -2.03200164450636      3.44886190851207      5.29838000276880
  H   0.17567408433177      0.52998035029258      5.94537531130486
  H   -0.69903685225955     -0.67305386623944      4.94939746663657
  H   -1.39954003505434     -0.12246099439388      6.51048017949034
  H   -4.33403945347681      2.32230703602442      4.97249121122806
  H   -4.68263476891685      1.72930601584435      3.31436348489532
  H   -3.41026518339849      2.96195185025071      3.56898797710508
  H   -3.83843240472869     -0.14413875748895      5.79040226133967
  H   -2.87994815207712     -1.20295159815487      4.69609320623407
  H   -4.45458123616245     -0.55248609287444      4.15632416814591
  H   -1.97651019916663      0.22651422005365      0.31063997918510
  H   0.11681802488237      1.85659407531946     -2.90560253623454
  H   1.34602272447936      3.61787067389308     -1.81713771819699
