60
Generated by autodE on: 2022-07-09. 
C     3.39955 -37.94292  16.04759
C     3.65250 -38.23210  17.52565
O     3.24459 -37.11226  18.30800
C     2.78199 -39.41858  17.96004
C     5.16465 -38.40916  17.91726
C     5.61730 -39.85636  18.09942
C     6.11916 -37.70458  16.94431
O     5.25969 -37.72138  19.16301
B     4.16269 -36.91246  19.30555
C     3.97285 -35.91419  20.47605
C     5.00221 -35.66862  21.33279
C     5.05355 -34.78464  22.42904
H     6.00747 -34.64668  22.91511
C     3.88600 -34.08151  23.07400
H     4.10815 -33.77888  24.09550
C     2.53353 -34.70998  23.02031
B     1.76043 -34.85168  24.36887
O     2.25563 -34.42790  25.57230
C     1.38857 -34.88096  26.61110
C     1.22474 -33.77961  27.65609
C     2.07044 -36.09198  27.26056
C     0.07449 -35.26157  25.83637
C    -0.96070 -34.12965  25.82458
C    -0.59972 -36.54926  26.30473
O     0.52707 -35.42523  24.49241
C     2.00959 -35.17198  21.88301
C     2.66107 -35.13512  20.53740
H     1.98322 -35.57590  19.80423
C     3.04389 -33.75359  20.06485
C     3.80253 -32.88239  20.75757
C     4.29254 -33.03575  22.07710
H     4.98641 -32.29143  22.43798
H     2.32830 -37.85388  15.88445
H     3.78214 -38.75519  15.43540
H     3.86418 -37.01037  15.74426
H     1.73793 -39.15591  17.80503
H     2.92379 -39.61926  19.01908
H     3.01231 -40.30831  17.38175
H     5.46837 -40.41611  17.17994
H     5.07751 -40.33663  18.90902
H     6.67536 -39.86488  18.34928
H     6.13595 -38.20269  15.97953
H     7.11982 -37.72278  17.37013
H     5.82764 -36.66489  16.81827
H     5.92387 -36.20390  21.13245
H     2.18182 -33.61104  28.14358
H     0.49668 -34.07823  28.40542
H     0.91209 -32.84704  27.19772
H     3.04553 -35.78228  27.62978
H     2.22492 -36.87547  26.52293
H     1.48395 -36.47582  28.08981
H    -1.38339 -33.97340  26.81255
H    -1.75833 -34.39951  25.13639
H    -0.50722 -33.20871  25.46706
H    -0.87979 -36.46827  27.35156
H     0.05222 -37.40578  26.16809
H    -1.49635 -36.71134  25.71177
H     1.02948 -35.62708  21.92975
H     2.78942 -33.52193  19.04100
H     4.10949 -31.96800  20.26100
