60
Generated by autodE on: 2022-07-09. 
C     3.47847 -37.73116  15.91578
C     3.73414 -38.15716  17.35954
O     3.25897 -37.14684  18.24748
C     2.92609 -39.42622  17.65995
C     5.24962 -38.29306  17.75331
C     5.78116 -39.72419  17.78442
C     6.17181 -37.43383  16.87883
O     5.29240 -37.74244  19.06912
B     4.15182 -37.01555  19.28009
C     3.88382 -36.17503  20.55322
C     4.91377 -35.99202  21.48933
C     4.93648 -35.19055  22.59205
H     5.86897 -35.10315  23.13248
C     3.82882 -34.29325  23.06599
H     4.05947 -33.89782  24.05577
C     2.45191 -34.89442  23.11186
B     1.70334 -34.89290  24.48069
O     2.22920 -34.38486  25.63685
C     1.36310 -34.71822  26.72063
C     1.25319 -33.52843  27.67134
C     2.01123 -35.89513  27.46108
C     0.02545 -35.11520  25.99666
C    -0.96605 -33.94916  25.89387
C    -0.69042 -36.32884  26.58535
O     0.45370 -35.41390  24.66834
C     1.89506 -35.45419  22.03818
C     2.50274 -35.55884  20.68895
H     1.81581 -36.04975  20.00076
C     3.09993 -34.34587  20.04893
C     3.79974 -33.33104  20.69106
C     4.12886 -33.26534  22.01675
H     4.76509 -32.45132  22.33604
H     2.40537 -37.68556  15.74686
H     3.91210 -38.45323  15.22924
H     3.89224 -36.74792  15.71637
H     1.87015 -39.20318  17.52450
H     3.07530 -39.72888  18.69349
H     3.20444 -40.23741  16.99403
H     5.67244 -40.18754  16.80749
H     5.26165 -40.31887  18.52867
H     6.83560 -39.70184  18.04827
H     6.22534 -37.82122  15.86583
H     7.16797 -37.44352  17.31526
H     5.82335 -36.40413  16.86218
H     5.83190 -36.51172  21.24034
H     2.22369 -33.35190  28.12854
H     0.52918 -33.73895  28.45387
H     0.96250 -32.62747  27.14094
H     3.00285 -35.59266  27.78998
H     2.12468 -36.74314  26.79033
H     1.42468 -36.18566  28.32746
H    -1.37068 -33.68998  26.86766
H    -1.78143 -34.24748  25.23896
H    -0.48197 -33.08189  25.45205
H    -0.94571 -36.14709  27.62587
H    -0.07600 -37.22020  26.51223
H    -1.60481 -36.50374  26.02395
H     0.90915 -35.88644  22.14368
H     3.00830 -34.30277  18.97444
H     4.18372 -32.54291  20.05261
