60
Generated by autodE on: 2022-07-09. 
C     3.58938 -37.63234  15.86878
C     3.76374 -38.12177  17.30485
O     3.28083 -37.12771  18.20749
C     2.90325 -39.37449  17.51482
C     5.25497 -38.32255  17.76007
C     5.73792 -39.77132  17.76541
C     6.24343 -37.46542  16.95890
O     5.25850 -37.81491  19.09341
B     4.13767 -37.04930  19.27642
C     3.85737 -36.23138  20.55785
C     4.87902 -36.08105  21.53159
C     4.89807 -35.30337  22.63429
H     5.79970 -35.27800  23.22960
C     3.82833 -34.30255  23.02069
H     4.07024 -33.88878  24.00182
C     2.45318 -34.91934  23.11454
B     1.72282 -34.89856  24.49315
O     2.25136 -34.35804  25.63289
C     1.39799 -34.67716  26.73114
C     1.28017 -33.46777  27.65581
C     2.06572 -35.82965  27.49236
C     0.05974 -35.10689  26.02752
C    -0.94718 -33.95610  25.90436
C    -0.63720 -36.31407  26.65112
O     0.48163 -35.43198  24.70361
C     1.88238 -35.50704  22.06170
C     2.46399 -35.63057  20.70451
H     1.77291 -36.13993  20.03432
C     3.04397 -34.42190  20.03605
C     3.66364 -33.33269  20.67200
C     3.95966 -33.20617  21.98660
H     4.47095 -32.31170  22.31281
H     2.52730 -37.54812  15.65173
H     4.03520 -38.33948  15.17463
H     4.03943 -36.65470  15.72927
H     1.86212 -39.11226  17.34049
H     2.99427 -39.72597  18.53950
H     3.18756 -40.16578  16.82757
H     5.66455 -40.19749  16.76841
H     5.16279 -40.37398  18.46075
H     6.77782 -39.79385  18.08172
H     6.32906 -37.81490  15.93451
H     7.21808 -37.52692  17.43768
H     5.93099 -36.42405  16.96924
H     5.76105 -36.67469  21.31787
H     2.25238 -33.26628  28.09881
H     0.56740 -33.67128  28.45048
H     0.97013 -32.58357  27.10845
H     3.05810 -35.51041  27.80248
H     2.17937 -36.69260  26.84099
H     1.49175 -36.10470  28.37216
H    -1.34596 -33.67687  26.87500
H    -1.76483 -34.28180  25.26548
H    -0.47861 -33.09460  25.43533
H    -0.88216 -36.11176  27.69031
H    -0.01487 -37.20084  26.59028
H    -1.55631 -36.51004  26.10460
H     0.90407 -35.94947  22.19455
H     2.97601 -34.41681  18.96009
H     3.92900 -32.50921  20.01700
