60
Generated by autodE on: 2022-07-09. 
C     3.47493 -37.74800  15.91159
C     3.71831 -38.14381  17.36621
O     3.24460 -37.10781  18.22722
C     2.89860 -39.39968  17.68755
C     5.23160 -38.27901  17.77205
C     5.74591 -39.71290  17.87333
C     6.16981 -37.47109  16.86697
O     5.27715 -37.66759  19.06232
B     4.14328 -36.93159  19.24258
C     3.89552 -35.98589  20.46607
C     4.92864 -35.87112  21.41579
C     4.97098 -34.92991  22.44382
H     5.91394 -34.84564  22.97175
C     3.80721 -34.26515  23.10950
H     4.05072 -33.86721  24.08995
C     2.45307 -34.88715  23.12902
B     1.70092 -34.90032  24.49445
O     2.20904 -34.38115  25.65445
C     1.34236 -34.73282  26.73213
C     1.20049 -33.54658  27.68304
C     2.00909 -35.89669  27.47683
C     0.01824 -35.15682  25.99893
C    -0.99579 -34.01115  25.88799
C    -0.67671 -36.38501  26.58224
O     0.46134 -35.44783  24.67425
C     1.89441 -35.44663  22.05431
C     2.46482 -35.55677  20.70060
H     1.78404 -36.05073  20.01431
C     3.22536 -34.45511  20.04527
C     3.84268 -33.37123  20.67471
C     4.30397 -33.40639  21.99359
H     4.91836 -32.56818  22.30170
H     2.40341 -37.69740  15.73445
H     3.90658 -38.48943  15.24483
H     3.89828 -36.77318  15.69216
H     1.84571 -39.17366  17.53495
H     3.03405 -39.68135  18.72870
H     3.17932 -40.22670  17.04240
H     5.64355 -40.21849  16.91699
H     5.21134 -40.26778  18.63729
H     6.79719 -39.68949  18.14889
H     6.21802 -37.89753  15.86968
H     7.16472 -37.48258  17.30602
H     5.84100 -36.43641  16.81056
H     5.86891 -36.32249  21.12813
H     2.16389 -33.34879  28.14652
H     0.47653 -33.77429  28.46083
H     0.89284 -32.65180  27.15179
H     2.99276 -35.57488  27.81126
H     2.14277 -36.74265  26.80726
H     1.42336 -36.19824  28.34001
H    -1.41237 -33.75899  26.85855
H    -1.80030 -34.32682  25.22776
H    -0.52621 -33.13489  25.44820
H    -0.94061 -36.21071  27.62182
H    -0.04419 -37.26373  26.50993
H    -1.58452 -36.57657  26.01563
H     0.91163 -35.88324  22.17043
H     3.05552 -34.36253  18.97990
H     4.27361 -32.61549  20.03029
