60
Generated by autodE on: 2022-07-09. 
C     3.46039 -37.75936  15.94035
C     3.71248 -38.17238  17.38899
O     3.23925 -37.14843  18.26271
C     2.89555 -39.43302  17.69925
C     5.22898 -38.30869  17.78520
C     5.74194 -39.74389  17.88284
C     6.16310 -37.50464  16.87212
O     5.28491 -37.69809  19.07463
B     4.14555 -36.97130  19.27146
C     3.90495 -36.03493  20.49803
C     4.93285 -35.83782  21.37963
C     4.98724 -34.84272  22.40563
H     5.93299 -34.78475  22.93134
C     3.81439 -34.24108  23.13019
H     4.06309 -33.85916  24.11429
C     2.46683 -34.86111  23.12389
B     1.70179 -34.89246  24.48430
O     2.20721 -34.38450  25.65003
C     1.33982 -34.74805  26.72319
C     1.19530 -33.57063  27.68462
C     2.00912 -35.91696  27.45742
C     0.01753 -35.16776  25.98404
C    -0.99978 -34.02382  25.88643
C    -0.67428 -36.40421  26.55366
O     0.46277 -35.44214  24.65584
C     1.92317 -35.40331  22.03293
C     2.51971 -35.48664  20.67633
H     1.82956 -35.97230  19.98926
C     3.14771 -34.29746  20.04932
C     3.84081 -33.31472  20.67586
C     4.36413 -33.41129  22.00829
H     4.97092 -32.56823  22.31745
H     2.38770 -37.69947  15.77351
H     3.88121 -38.49561  15.26103
H     3.88804 -36.78471  15.72877
H     1.84251 -39.20793  17.54601
H     3.02901 -39.72132  18.73885
H     3.17913 -40.25516  17.04923
H     5.63414 -40.24843  16.92653
H     5.21065 -40.29898  18.64898
H     6.79473 -39.72249  18.15303
H     6.20104 -37.93134  15.87438
H     7.16179 -37.52033  17.30243
H     5.83839 -36.46862  16.81860
H     5.87704 -36.30053  21.12330
H     2.15724 -33.37844  28.15344
H     0.46814 -33.80421  28.45759
H     0.89116 -32.67064  27.16020
H     2.99109 -35.59469  27.79638
H     2.14716 -36.75567  26.77968
H     1.42323 -36.22908  28.31666
H    -1.41700 -33.78477  26.86005
H    -1.80357 -34.33334  25.22250
H    -0.53261 -33.14082  25.45780
H    -0.94390 -36.23898  27.59331
H    -0.03774 -37.27971  26.47804
H    -1.57863 -36.59551  25.98147
H     0.93961 -35.84245  22.12852
H     2.95515 -34.18245  18.98991
H     4.24898 -32.51552  20.07006
