60
Generated by autodE on: 2022-07-09. 
C     3.45351 -37.75506  15.94024
C     3.72604 -38.17082  17.38400
O     3.25716 -37.15589  18.26956
C     2.92471 -39.44035  17.70027
C     5.24588 -38.29863  17.76304
C     5.78197 -39.72790  17.79781
C     6.15541 -37.44207  16.87287
O     5.30081 -37.73726  19.07428
B     4.16153 -37.01053  19.28975
C     3.90227 -36.14597  20.55095
C     4.93261 -35.94057  21.46733
C     4.95538 -35.10635  22.55874
H     5.89591 -34.98763  23.07886
C     3.82270 -34.27376  23.08095
H     4.05010 -33.88346  24.07247
C     2.45163 -34.87978  23.10858
B     1.69492 -34.88688  24.47272
O     2.21484 -34.37924  25.63207
C     1.35088 -34.72798  26.71280
C     1.23213 -33.54767  27.67401
C     2.00863 -35.90635  27.44233
C     0.01676 -35.12905  25.98494
C    -0.98200 -33.96875  25.88943
C    -0.69105 -36.35172  26.56453
O     0.44865 -35.41658  24.65508
C     1.90527 -35.43483  22.02732
C     2.52308 -35.53218  20.68140
H     1.84004 -36.02222  19.98875
C     3.11692 -34.31540  20.04936
C     3.82498 -33.31846  20.68977
C     4.18115 -33.28102  22.02085
H     4.83805 -32.48288  22.33861
H     2.37846 -37.70803  15.78475
H     3.87657 -38.48363  15.25390
H     3.86708 -36.77450  15.72788
H     1.86678 -39.22034  17.57574
H     3.08618 -39.73820  18.73332
H     3.19737 -40.25384  17.03479
H     5.65800 -40.19973  16.82677
H     5.27627 -40.31738  18.55566
H     6.84057 -39.70109  18.04374
H     6.19784 -37.83459  15.86125
H     7.15676 -37.44659  17.29732
H     5.80358 -36.41348  16.85532
H     5.86573 -36.42853  21.21083
H     2.20169 -33.36735  28.13174
H     0.51075 -33.77113  28.45536
H     0.93355 -32.64439  27.15206
H     2.99882 -35.59925  27.77133
H     2.12687 -36.74782  26.76420
H     1.42624 -36.20834  28.30755
H    -1.38844 -33.71885  26.86490
H    -1.79539 -34.26725  25.23216
H    -0.50289 -33.09547  25.45401
H    -0.94661 -36.18012  27.60668
H    -0.07079 -37.23840  26.48361
H    -1.60466 -36.52810  26.00233
H     0.91940 -35.86930  22.12284
H     3.01027 -34.25815  18.97638
H     4.23288 -32.53586  20.05980
