60
Generated by autodE on: 2022-07-09. 
C     3.47895 -37.74273  15.89022
C     3.72600 -38.12583  17.34720
O     3.26321 -37.07651  18.19833
C     2.89982 -39.37244  17.68734
C     5.23853 -38.26700  17.75076
C     5.74987 -39.70234  17.84276
C     6.17526 -37.45594  16.84704
O     5.28519 -37.66026  19.04390
B     4.15967 -36.90966  19.21767
C     3.90803 -35.95669  20.43387
C     4.93549 -35.91583  21.45835
C     4.95073 -35.14168  22.55722
H     5.85986 -35.13689  23.14793
C     3.83852 -34.30492  23.07948
H     4.07060 -33.91460  24.06976
C     2.46410 -34.91335  23.12016
B     1.71344 -34.90935  24.48624
O     2.21843 -34.37042  25.63841
C     1.35306 -34.70698  26.72143
C     1.20490 -33.50428  27.65055
C     2.02595 -35.85335  27.48746
C     0.03095 -35.15153  25.99643
C    -0.99414 -34.01674  25.87328
C    -0.65466 -36.37434  26.60274
O     0.47451 -35.45849  24.67555
C     1.89578 -35.47517  22.05000
C     2.45251 -35.58870  20.69940
H     1.77679 -36.07708  20.00597
C     3.28159 -34.52322  20.05203
C     3.84943 -33.37838  20.71980
C     4.16778 -33.31312  22.02540
H     4.71293 -32.43777  22.36006
H     2.40687 -37.68393  15.71924
H     3.90025 -38.49378  15.22771
H     3.90956 -36.77360  15.66010
H     1.84737 -39.14049  17.54068
H     3.04163 -39.64439  18.73034
H     3.16969 -40.20802  17.04870
H     5.63626 -40.20331  16.88521
H     5.22099 -40.25916  18.60929
H     6.80407 -39.68384  18.10748
H     6.22369 -37.88107  15.84913
H     7.17045 -37.46552  17.28546
H     5.84360 -36.42205  16.79209
H     5.83850 -36.44970  21.19272
H     2.16791 -33.29201  28.10837
H     0.48378 -33.72182  28.43390
H     0.89073 -32.62149  27.10327
H     3.00817 -35.52016  27.81488
H     2.16348 -36.71114  26.83389
H     1.44247 -36.14161  28.35669
H    -1.40668 -33.75408  26.84287
H    -1.80049 -34.34995  25.22396
H    -0.53632 -33.14261  25.41739
H    -0.91779 -36.18114  27.63929
H    -0.01745 -37.25081  26.54698
H    -1.56278 -36.58246  26.04245
H     0.90983 -35.90387  22.17409
H     3.11060 -34.39922  18.99033
H     4.20230 -32.59017  20.06649
