60
Generated by autodE on: 2022-07-09. 
C     3.27179 -38.05223  16.17194
C     3.60282 -38.25985  17.64834
O     3.21329 -37.10455  18.38748
C     2.77301 -39.43217  18.18743
C     5.13616 -38.39176  17.97370
C     5.61633 -39.81687  18.24072
C     6.03220 -37.75328  16.90493
O     5.28550 -37.61184  19.16003
B     4.18044 -36.82101  19.31189
C     4.02180 -35.72671  20.41241
C     5.04333 -35.47849  21.25004
C     5.11386 -34.46314  22.29511
H     6.05223 -34.47485  22.83926
C     3.91386 -34.00919  23.10235
H     4.14598 -33.72884  24.12270
C     2.58535 -34.64206  22.99395
B     1.79198 -34.83942  24.32565
O     2.27269 -34.48401  25.55630
C     1.38391 -34.98124  26.55637
C     1.22104 -33.93790  27.65909
C     2.03772 -36.23792  27.14510
C     0.07684 -35.29787  25.74308
C    -0.93557 -34.14581  25.76973
C    -0.62963 -36.59309  26.13695
O     0.55028 -35.40400  24.40056
C     2.06413 -35.07222  21.84018
C     2.70542 -35.00803  20.48991
H     2.02724 -35.43482  19.75016
C     3.14032 -33.65423  20.05563
C     3.89839 -32.81764  20.76105
C     4.51624 -33.10571  22.05652
H     5.08475 -32.27034  22.45201
H     2.19276 -37.97680  16.06183
H     3.62730 -38.89410  15.58414
H     3.71246 -37.13479  15.79550
H     1.71892 -39.19183  18.06831
H     2.96665 -39.57321  19.24777
H     2.98958 -40.34905  17.64764
H     5.42881 -40.44625  17.37502
H     5.12415 -40.23921  19.11070
H     6.68553 -39.79673  18.43632
H     5.99776 -38.31497  15.97626
H     7.05490 -37.74200  17.27473
H     5.72977 -36.72458  16.72606
H     5.95309 -36.04506  21.09636
H     2.17364 -33.81121  28.16759
H     0.47837 -34.26710  28.38079
H     0.92807 -32.97666  27.24955
H     3.01397 -35.96639  27.54028
H     2.18635 -36.98241  26.36694
H     1.43558 -36.65609  27.94608
H    -1.37336 -34.03017  26.75671
H    -1.72532 -34.36450  25.05476
H    -0.45699 -33.21798  25.46676
H    -0.91838 -36.56068  27.18406
H     0.00545 -37.45527  25.96162
H    -1.52358 -36.70462  25.52846
H     1.08603 -35.53139  21.87498
H     2.80677 -33.33828  19.07475
H     4.17174 -31.86453  20.32530
