60
Generated by autodE on: 2022-07-09. 
C     3.53658 -37.74374  15.85307
C     3.74932 -38.10389  17.32096
O     3.29882 -37.03027  18.14856
C     2.88841 -39.32436  17.67028
C     5.24979 -38.27518  17.75280
C     5.73145 -39.72004  17.85222
C     6.21739 -37.48023  16.86756
O     5.28126 -37.67103  19.04761
B     4.17226 -36.88938  19.19307
C     3.91176 -35.94824  20.41354
C     4.91240 -35.95938  21.47843
C     4.91118 -35.25258  22.60898
H     5.76832 -35.34668  23.26450
C     3.84431 -34.31025  23.05563
H     4.07540 -33.92583  24.04992
C     2.46738 -34.92877  23.10844
B     1.72495 -34.92475  24.47810
O     2.24186 -34.38168  25.62283
C     1.38373 -34.70704  26.71425
C     1.25178 -33.49859  27.63836
C     2.05519 -35.85405  27.48066
C     0.05328 -35.14559  26.00123
C    -0.95888 -34.00001  25.87144
C    -0.64020 -36.35660  26.62118
O     0.48590 -35.46811  24.68018
C     1.89775 -35.49229  22.03747
C     2.44580 -35.59851  20.68475
H     1.77153 -36.08819  19.99090
C     3.27102 -34.51962  20.04422
C     3.75842 -33.33956  20.73546
C     4.01871 -33.23348  22.03975
H     4.42398 -32.29657  22.40165
H     2.46936 -37.66725  15.66019
H     3.95484 -38.51654  15.21394
H     3.99150 -36.78865  15.61172
H     1.84378 -39.06847  17.50813
H     3.01223 -39.58310  18.71900
H     3.14425 -40.17633  17.04774
H     5.61937 -40.21953  16.89369
H     5.18189 -40.26536  18.61253
H     6.78252 -39.72263  18.12979
H     6.28307 -37.91118  15.87306
H     7.20218 -37.49966  17.32859
H     5.89938 -36.44278  16.79999
H     5.76885 -36.58301  21.25574
H     2.21978 -33.29194  28.08821
H     0.53447 -33.70647  28.42779
H     0.94110 -32.61592  27.08888
H     3.04354 -35.52668  27.79531
H     2.17886 -36.71741  26.83167
H     1.47856 -36.13143  28.35794
H    -1.36451 -33.72178  26.83951
H    -1.77137 -34.32942  25.22790
H    -0.49107 -33.13679  25.40472
H    -0.89423 -36.15392  27.65812
H    -0.01123 -37.23915  26.56710
H    -1.55382 -36.56023  26.06828
H     0.91498 -35.92805  22.16677
H     3.10564 -34.39293  18.98282
H     3.97898 -32.49576  20.09270
