60
Generated by autodE on: 2022-07-09. 
C     3.51959 -37.71297  15.90105
C     3.74917 -38.14860  17.34631
O     3.26963 -37.13847  18.23229
C     2.92568 -39.41221  17.62740
C     5.25705 -38.30015  17.76240
C     5.77668 -39.73572  17.78937
C     6.19927 -37.44053  16.90994
O     5.28366 -37.76068  19.08315
B     4.14742 -37.02264  19.28028
C     3.86813 -36.19222  20.55543
C     4.89142 -36.02044  21.51328
C     4.90678 -35.23189  22.61575
H     5.82340 -35.17317  23.18603
C     3.81763 -34.27790  23.03500
H     4.04912 -33.86851  24.01974
C     2.44099 -34.88646  23.10233
B     1.70281 -34.88047  24.47675
O     2.23854 -34.37517  25.62956
C     1.38256 -34.71399  26.71974
C     1.28403 -33.53127  27.68038
C     2.03533 -35.89793  27.44478
C     0.03743 -35.10348  26.00621
C    -0.94983 -33.93289  25.91533
C    -0.67830 -36.31612  26.59690
O     0.45375 -35.39996  24.67360
C     1.88064 -35.46409  22.03938
C     2.48039 -35.58265  20.68865
H     1.79423 -36.08589  20.00868
C     3.07206 -34.37505  20.03094
C     3.74001 -33.32458  20.66754
C     4.04434 -33.22069  21.98838
H     4.63024 -32.36992  22.30721
H     2.44972 -37.65840  15.71522
H     3.95883 -38.43468  15.21770
H     3.94389 -36.73187  15.71357
H     1.87377 -39.17908  17.47813
H     3.05737 -39.72255  18.66104
H     3.20641 -40.22181  16.96057
H     5.67950 -40.18995  16.80697
H     5.24097 -40.33256  18.52030
H     6.82704 -39.72416  18.06965
H     6.26670 -37.82003  15.89479
H     7.18802 -37.46060  17.36256
H     5.85810 -36.40833  16.89620
H     5.79436 -36.57572  21.28543
H     2.25868 -33.36087  28.13103
H     0.56585 -33.74598  28.46716
H     0.99132 -32.62544  27.15948
H     3.03130 -35.60059  27.76510
H     2.13918 -36.74120  26.76650
H     1.45731 -36.19332  28.31525
H    -1.34695 -33.67668  26.89300
H    -1.77072 -34.22463  25.26436
H    -0.46490 -33.06555  25.47454
H    -0.92328 -36.13739  27.64042
H    -0.06830 -37.20975  26.51462
H    -1.59849 -36.48492  26.04314
H     0.89885 -35.90278  22.15701
H     2.99650 -34.35622  18.95503
H     4.07888 -32.52522  20.01721
