60
Generated by autodE on: 2022-07-09. 
C     3.62018 -37.66291  15.81007
C     3.78190 -38.07759  17.27044
O     3.31763 -37.02687  18.11939
C     2.89487 -39.29757  17.54850
C     5.26729 -38.28295  17.74140
C     5.72173 -39.73766  17.82832
C     6.27464 -37.49006  16.89958
O     5.27344 -37.70541  19.04809
B     4.16771 -36.91810  19.18639
C     3.89461 -35.99651  20.41807
C     4.89193 -36.01972  21.48973
C     4.89030 -35.32140  22.62240
H     5.72145 -35.44632  23.30422
C     3.83868 -34.33629  23.03647
H     4.08342 -33.93508  24.02141
C     2.47280 -34.98150  23.12803
B     1.74227 -34.95375  24.50389
O     2.26494 -34.38734  25.63433
C     1.40534 -34.67848  26.73460
C     1.28353 -33.44568  27.62744
C     2.06706 -35.81122  27.52990
C     0.07108 -35.12429  26.03356
C    -0.92995 -33.97291  25.87211
C    -0.63422 -36.31124  26.68569
O     0.50072 -35.48594  24.72176
C     1.89800 -35.57579  22.07469
C     2.42079 -35.68805  20.71321
H     1.74485 -36.20190  20.03871
C     3.20707 -34.58989  20.05079
C     3.62650 -33.37150  20.72620
C     3.89358 -33.23384  22.02336
H     4.20830 -32.26393  22.38586
H     2.56049 -37.57033  15.58516
H     4.05368 -38.41513  15.15678
H     4.08961 -36.70325  15.61935
H     1.86009 -39.02363  17.35541
H     2.97564 -39.59070  18.59236
H     3.16440 -40.13270  16.90919
H     5.64102 -40.21562  16.85584
H     5.13420 -40.28974  18.55459
H     6.76057 -39.76220  18.14781
H     6.35776 -37.90047  15.89776
H     7.24622 -37.54125  17.38558
H     5.98131 -36.44457  16.84684
H     5.72258 -36.68350  21.28509
H     2.25194 -33.23822  28.07604
H     0.56077 -33.62517  28.41883
H     0.98498 -32.57394  27.05428
H     3.05559 -35.48244  27.84259
H     2.18889 -36.68960  26.90094
H     1.48434 -36.06574  28.41016
H    -1.33835 -33.66889  26.83128
H    -1.74172 -34.31001  25.23162
H    -0.45210 -33.12475  25.38823
H    -0.88848 -36.07734  27.71601
H    -0.01318 -37.20058  26.65762
H    -1.54863 -36.52181  26.13666
H     0.92638 -36.02859  22.22877
H     3.02384 -34.48333  18.99021
H     3.73944 -32.51176  20.07618
