60
Generated by autodE on: 2022-07-09. 
C     3.42012 -38.10350  16.17435
C     3.62550 -38.27948  17.67786
O     3.23390 -37.08502  18.35131
C     2.70314 -39.39741  18.18049
C     5.12313 -38.46879  18.12283
C     5.51114 -39.90186  18.48239
C     6.12793 -37.92153  17.10074
O     5.22547 -37.64554  19.28329
B     4.15107 -36.79988  19.32432
C     4.00450 -35.63674  20.34913
C     5.02756 -35.32360  21.15649
C     5.08004 -34.26724  22.16466
H     6.03175 -34.22636  22.68362
C     3.87846 -33.91659  23.02888
H     4.11687 -33.66947  24.05603
C     2.58151 -34.60544  22.91091
B     1.81520 -34.85895  24.25012
O     2.35353 -34.60222  25.48213
C     1.47288 -35.11620  26.48096
C     1.41473 -34.14730  27.65924
C     2.06579 -36.44967  26.95378
C     0.12287 -35.29588  25.69891
C    -0.79861 -34.07564  25.82119
C    -0.66420 -36.55560  26.05099
O     0.54761 -35.36119  24.33670
C     2.06230 -35.02524  21.74875
C     2.69138 -34.87429  20.39232
H     2.03040 -35.31097  19.64147
C     2.88955 -33.41610  20.07610
C     3.64010 -32.58793  20.79286
C     4.40088 -32.93886  21.99654
H     4.94686 -32.09738  22.41017
H     2.35729 -37.99027  15.97536
H     3.78694 -38.97548  15.63968
H     3.92609 -37.21515  15.81043
H     1.67405 -39.11694  17.96753
H     2.80314 -39.51277  19.25673
H     2.92194 -40.33937  17.68661
H     5.36831 -40.55685  17.62718
H     4.92865 -40.26747  19.32171
H     6.55990 -39.91999  18.76827
H     6.13358 -38.51932  16.19431
H     7.11946 -37.94565  17.54707
H     5.89484 -36.88744  16.86017
H     5.92800 -35.91907  21.06950
H     2.39043 -34.11626  28.13792
H     0.67791 -34.48207  28.38440
H     1.16947 -33.14285  27.32997
H     3.07321 -36.26905  27.32174
H     2.13245 -37.14568  26.12126
H     1.47009 -36.88370  27.75120
H    -1.19922 -33.98549  26.82649
H    -1.62165 -34.19266  25.12012
H    -0.25863 -33.17006  25.55610
H    -0.91003 -36.56072  27.10955
H    -0.10274 -37.45070  25.80419
H    -1.58634 -36.56685  25.47537
H     1.10287 -35.52262  21.78305
H     2.37254 -33.04008  19.20422
H     3.71782 -31.55053  20.49016
