60
Generated by autodE on: 2022-07-09. 
C     3.44436 -37.79203  15.95431
C     3.71464 -38.20174  17.40036
O     3.23848 -37.18595  18.28098
C     2.91974 -39.47492  17.71789
C     5.23470 -38.32066  17.78253
C     5.77722 -39.74732  17.82936
C     6.14342 -37.46807  16.88739
O     5.28597 -37.74844  19.08840
B     4.14329 -37.02313  19.29703
C     3.89981 -36.12883  20.54207
C     4.93417 -35.90107  21.41742
C     4.97991 -35.02650  22.50466
H     5.93153 -34.90064  23.00070
C     3.83367 -34.26096  23.10135
H     4.06853 -33.89594  24.09943
C     2.46565 -34.86187  23.10328
B     1.70190 -34.88774  24.46408
O     2.22062 -34.39494  25.63073
C     1.35172 -34.74967  26.70546
C     1.23082 -33.57544  27.67410
C     2.00459 -35.93364  27.43026
C     0.01928 -35.14285  25.96969
C    -0.98049 -33.98249  25.88566
C    -0.68959 -36.37232  26.53336
O     0.45377 -35.41491  24.63726
C     1.92326 -35.38901  22.00549
C     2.54912 -35.45483  20.65558
H     1.85911 -35.92814  19.95668
C     3.07315 -34.18450  20.06410
C     3.82105 -33.24895  20.70854
C     4.25040 -33.28794  22.04215
H     4.93621 -32.51708  22.36325
H     2.36964 -37.75211  15.79481
H     3.87445 -38.51975  15.27144
H     3.85243 -36.80946  15.74076
H     1.86133 -39.26424  17.58227
H     3.07444 -39.76453  18.75428
H     3.20472 -40.29078  17.06048
H     5.66086 -40.22592  16.86069
H     5.27053 -40.33451  18.58826
H     6.83444 -39.71364  18.08053
H     6.19308 -37.87053  15.88006
H     7.14265 -37.46294  17.31691
H     5.78651 -36.44161  16.85798
H     5.86840 -36.39084  21.16842
H     2.19643 -33.40472  28.14369
H     0.49959 -33.79931  28.44605
H     0.94396 -32.66661  27.15518
H     2.99272 -35.62927  27.76784
H     2.12703 -36.77012  26.74680
H     1.41661 -36.24169  28.28951
H    -1.38975 -33.74501  26.86303
H    -1.79192 -34.27411  25.22296
H    -0.50179 -33.10319  25.46229
H    -0.95660 -36.20860  27.57393
H    -0.06569 -37.25641  26.45302
H    -1.59665 -36.54770  25.96037
H     0.93387 -35.81819  22.08733
H     2.90800 -34.06715  19.00280
H     4.21444 -32.43147  20.11469
